%chk=D:\Documents\rayGit\FQ\quimicaComputacional\p5Fenol\transitionState\tsFenolandRadical.chk
%mem=1500mb
%nproc=4
# opt(calcfc,ts,noeigen) freq=noraman scrf=smd 6-31+G(d,p) iop(1/8=3) m062x

tsFenolandRadical m062x

0 2
 C                  0.72130958   -2.76499567   -0.28169473
 C                  0.72061129   -1.79713211   -1.28653853
 C                  1.91859353   -1.42124194   -1.89380033
 C                  3.11817561   -2.01244845   -1.49543585
 C                  3.11885604   -2.97973030   -0.49049687
 C                  1.92029823   -3.35633529    0.11616428
 H                 -0.22336092   -3.06153295    0.19664210
 H                 -0.22491169   -1.33167617   -1.60051120
 H                  4.06262451   -1.71586910   -1.97434430
 H                  4.06410402   -3.44585016   -0.17631098
 H                  1.92105260   -4.11905067    0.90824616
 O                  1.91787826   -0.42980752   -2.92431344
 H                  2.14505118    0.64046991   -2.50982737
 O                  2.41362513    1.57671921   -1.67934241
 O                  2.50414392    1.01262942   -0.48938062
 H                  1.64756785    1.03903125   -0.05673713
