%chk=D:\Documents\rayGit\FQ\quimicaComputacional\proyecto\decompositionHydrogenPeroxide\descompositionByRadicals\gasPhase\step4\ts\tsm062x.chk
%mem=1500MB
%nprocshared=4
# opt=(calcfc,ts,noeigen,maxcycles=100) freq=noraman 6-31+g(d,p) m062x

ts2

0 1
 O                 -1.20732317    0.34506415    0.00000000
 H                 -1.52777776    1.24999998    0.00000000
 O                  0.11267683    0.34506415    0.00000000
 O                 -1.84823234    2.15493581    0.00000000
 H                 -1.10186885    2.75870857    0.00000000
