%chk=C:\Users\sagad\Documents\rayGit\FQ\quimicaComputacional\fenol\productos\fenolM062X.chk
# hf/3-21g geom=connectivity

Title Card Required

0 1
 C                 -0.30959752    1.31578945    0.00000000
 C                  1.08556248    1.31578945    0.00000000
 C                  1.78310048    2.52354045    0.00000000
 C                  1.08544648    3.73204945   -0.00119900
 C                 -0.30937852    3.73197145   -0.00167800
 C                 -1.00697952    2.52376545   -0.00068200
 H                 -0.85935652    0.36347245    0.00045000
 H                  1.63507048    0.36327645    0.00131500
 H                  1.63564648    4.68419245   -0.00125800
 H                 -0.85950052    4.68425245   -0.00263100
 H                 -2.10658352    2.52394845   -0.00086200
 O                  3.21310024    2.52364448    0.00082444
 H                  3.53316585    1.61857114    0.00131036

 1 2 1.5 6 1.5 7 1.0
 2 3 1.5 8 1.0
 3 4 1.5 12 1.0
 4 5 1.5 9 1.0
 5 6 1.5 10 1.0
 6 11 1.0
 7
 8
 9
 10
 11
 12 13 1.0
 13

