%chk=D:\Documents\rayGit\FQ\quimicaComputacional\p4Pka\reactivos\4WATERSM062X.chk
%mem=1500MB
%nprocshared=4
# opt freq 6-31+g(d,p) scrf=smd m062x

Hidronio m062x con 4 aguas

0 1
 O                 -0.00019117    0.49534390    0.00000000
 H                 -0.46115017    0.16332390    0.79709200
 H                  0.92172683    0.16797290    0.00000000
 O                  2.58026422   -0.42096999    0.00000000
 O                 -1.28999829   -0.43367964   -2.23033922
 O                 -1.28999829   -0.43367964    2.23033922
 H                  3.31079596    0.20186496    0.00000000
 H                  2.75438924   -1.36504651    0.00000000
 H                 -0.74916386   -0.26652797   -3.00568329
 H                 -2.13211385    0.01756392   -2.32425749
 H                 -0.74916386   -0.26652797    3.00568329
 H                 -2.13211385    0.01756392    2.32425749

