%chk=D:\Documents\rayGit\FQ\quimicaComputacional\p4Pka\reactivos\formicAcidM062x.chk
%mem=1500mb
%nproc=4
# opt freq 6-31+G(d,p) scrf=smd m062x

formic acid m062x 

0 1
 C                 -0.05876068    0.11752137    0.00000000
 H                  0.29790594    0.11751697   -1.00880569
 O                  0.41790624    0.11751549    1.34821684
 O                 -1.48876068    0.11753899    0.00000000
 H                 -1.80876068    0.11754293    0.90509668
