%chk=D:\Documents\rayGit\FQ\quimicaComputacional\p2_radicalReaction\pruebaTs\ts.chk
%mem=1500mb
%nproc=4
# opt=(calcfc,qst2,maxcycles=100) freq=noraman m062x/6-31+g(d,p)

reactivos 

0 2
 C                 -3.45566014    5.19893327   -2.57914791
 H                 -3.09900571    4.19012326   -2.57914791
 H                 -3.09898730    5.70333146   -1.70549641
 H                 -3.09898730    5.70333146   -3.45279941
 H                 -4.52566014    5.19894645   -2.57914791
 O                 -2.26570098    1.83309055   -2.57914791
 H                 -1.30570098    1.83307890   -2.57914791

Prouductos

0 2
 C                 -3.45566014    5.19893327   -2.57914791
 H                 -2.58569000    2.73819111   -2.57914791
 H                 -3.09898730    5.70333146   -1.70549641
 H                 -3.09898730    5.70333146   -3.45279941
 H                 -4.52566014    5.19894645   -2.57914791
 O                 -2.26570098    1.83309055   -2.57914791
 H                 -1.30570098    1.83307890   -2.57914791
