%chk=C:\Users\sagad\Documents\rayGit\FQ\fisicoquimicaDeSistemasMolecularesOrganizados\tarea1\ala_cysGauss.chk
# hf/3-21g geom=connectivity

Title Card Required

0 1
 N                 -2.45237193   -1.35175851    0.00000000
 H                 -1.45281331   -1.38142366    0.00167927
 C                 -3.13932392   -0.07594775   -0.00243327
 H                 -3.76268800   -0.00005198   -0.89336369
 C                 -4.02797834    0.07142888    1.22809380
 C                 -2.14884530    1.07966348   -0.00197668
 H                 -3.41668947    0.00669750    2.12822494
 H                 -4.53108936    1.03796210    1.19992191
 H                 -4.77222823   -0.72488392    1.23690935
 O                 -0.91192118    0.84817964    0.00029983
 C                 -3.22481557   -2.60245065    0.00000000
 C                 -2.51920941   -3.93268347    0.22155368
 O                 -4.46946966   -2.57326602   -0.18318210
 N                 -3.45946863   -5.03454317    0.18387263
 H                 -2.02643688   -3.90794332    1.19349149
 C                 -1.45513715   -4.08173319   -0.86064678
 H                 -4.43111036   -4.85756587    0.02705540
 H                 -0.90800633   -5.01191082   -0.70729385
 H                 -1.93252273   -4.09890162   -1.84039601
 S                 -0.20799967   -2.77195072   -0.93289992
 H                  0.47012925   -3.28202481   -1.95704068
 O                 -2.62383327    2.42847102   -0.00413464
 H                 -1.87641604    3.03093808   -0.00509852
 H                 -3.13672872   -5.97194761    0.31468501

 1 2 1.0 3 1.0 11 1.0
 2
 3 4 1.0 5 1.0 6 1.0
 4
 5 7 1.0 8 1.0 9 1.0
 6 10 2.0 22 1.0
 7
 8
 9
 10
 11 12 1.0 13 2.0
 12 14 1.0 15 1.0 16 1.0
 13
 14 17 1.0 24 1.0
 15
 16 18 1.0 19 1.0 20 1.0
 17
 18
 19
 20 21 1.0
 21
 22 23 1.0
 23
 24

