%chk=D:\Documents\rayGit\FQ\quimicaComputacional\p5Fenol\products\fenoxideM062X.chk
%mem=1500mb
%nproc=4
# opt freq scrf=smd 6-31+G(d,p) m062x

fenoxide

0 2
 C                 -0.77586526    0.89801897    0.00000000
 C                  0.61929474    0.89801897    0.00000000
 C                  1.31683274    2.10576997    0.00000000
 C                  0.61917874    3.31427897   -0.00119900
 C                 -0.77564626    3.31420097   -0.00167800
 C                 -1.47324726    2.10599497   -0.00068200
 H                 -1.32562426   -0.05429803    0.00045000
 H                  1.16880274   -0.05449403    0.00131500
 H                  1.16937874    4.26642197   -0.00125800
 H                 -1.32576826    4.26648197   -0.00263100
 H                 -2.57285126    2.10617797   -0.00086200
 O                  2.74683250    2.10587400    0.00082444
