%chk=D:\Documents\rayGit\FQ\quimicaComputacional\proyecto\decompositionHydrogenPeroxide\descompositionByRadicals\gasPhase\step3\ts\Q2\tsM062X.chk
%mem=1500mb
%nproc=4
# opt=(calcfc,qst2,maxcycles=100) freq=noraman m062x/6-31+g(d,p)

reactives

0 1
 O                 -0.65176762   -0.00749995    0.00000000
 H                 -0.97222221   -0.00749995   -0.90493583
 O                  0.66823238   -0.00749995    0.00000000
 H                  1.31489905    1.82154959    0.00000000
 O                  1.63489904    2.72664627    0.00000000
 O                  2.95489904    2.72664627    0.00000000

products

0 1
 O                 -0.65176762   -0.00749995    0.00000000
 H                 -0.97222221   -0.00749995   -0.90493583
 O                  0.66823238   -0.00749995    0.00000000
 H                  0.98823238    0.89759673    0.00000000
 O                  1.63489904    2.72664627    0.00000000
 O                  2.95489904    2.72664627    0.00000000

