%chk=D:\Documents\rayGit\FQ\quimicaComputacional\p5Fenol\splet\react\fenoxido.chk
%mem=1500MB
%nprocshared=4
# opt freq 6-31+g(d,p) scrf=smd m062x

fenol m062x

-1 1
 C                 -1.78374920    0.54688450   -0.79911702
 C                 -0.38858932    0.54744195   -0.79898304
 C                  0.30850999    1.45347749    0.00000000
 C                 -0.38958309    2.36031716    0.79845126
 C                 -1.78440803    2.36001820    0.79790648
 C                 -2.48156998    1.45298256   -0.00063058
 H                 -2.33316221   -0.16782609   -1.42878118
 H                  0.16126482   -0.16754860   -1.42802256
 H                  0.16027106    3.07463880    1.42829359
 H                 -2.33487602    3.07459506    1.42706397
 H                 -3.58117399    1.45279951   -0.00075013
 O                  1.73850975    1.45358152    0.00082444

