%chk=C:\Users\sagad\Documents\rayGit\FQ\quimicaComputacional\clase8Pka\formicAcid.chk
# hf/3-21g geom=connectivity

Title Card Required

0 1
 C                  0.12578616    1.37316552    0.00000000
 O                  1.35310316    1.37316552    0.00000000
 H                 -0.46635884    2.31256952    0.00000000
 O                 -0.63675310    0.16344081    0.00005022
 H                 -0.04171447   -0.58990441    0.00008150

 1 2 2.0 3 1.0 4 1.0
 2
 3
 4 5 1.0
 5

